L6/1726522/GD.dss
! GERACAO DISTRIBUIDA — gerada de UGBT_tab e UGMT_tab
! Unidades com potencia nula sao omitidas (gerariam NaN).
! 158 unidades descartadas por potencia nula.
! 757 unidades de BT realocadas para o secundario do transformador (rede secundaria nao modelada).
! 0 unidades descartadas por ponto de conexao ausente da rede.
! irradiance=1 — ver o docstring: 1,0 e meio-dia de ceu claro, nao a ponta de carga.
! 1 barras tiveram a GD limitada a capacidade do transformador (1 kW cortados).
! inversores em pf=1 — ver o docstring de _pv: 0,92 e capacidade exigida pelo PRODIST, nao despacho.
! 0 unidades de MT ligadas pelo PAC da carga (casadas por CEG_GD): o PAC da UGMT nao existe na SSDMT.
New PVSystem.GD_83905fd9d4001e3771166f5444c98c34a61b5e718311abc72e4c83fc77035fee phases=3 bus1=node_437590212.1.2.3 conn=wye kv=13.8000 pf=1 pmpp=53.32 kva=53.32 irradiance=1 temperature=25 %cutin=20 %cutout=20 effcurve=MyEff P-TCurve=MyPvsT Daily=IRRAD_DIA TDaily=TEMP_DIA
New PVSystem.GD_4bd7bf17063de00754299501d23b0df221e57acdce40799960a33a3b6f58208d phases=3 bus1=node_441016639.1.2.3 conn=wye kv=13.8000 pf=1 pmpp=17.93 kva=17.93 irradiance=1 temperature=25 %cutin=20 %cutout=20 effcurve=MyEff P-TCurve=MyPvsT Daily=IRRAD_DIA TDaily=TEMP_DIA
New PVSystem.GD_c014ad4bce5cfab8471fd6a62372af09616ea39589940a0216b70761690dc518_1 phases=1 bus1=node_418498371.1.4 conn=wye kv=0.1270 pf=1 pmpp=0.26 kva=0.26 irradiance=1 temperature=25 %cutin=20 %cutout=20 effcurve=MyEff P-TCurve=MyPvsT Daily=IRRAD_DIA TDaily=TEMP_DIA
New PVSystem.GD_c014ad4bce5cfab8471fd6a62372af09616ea39589940a0216b70761690dc518_2 phases=1 bus1=node_418498371.2.4 conn=wye kv=0.1270 pf=1 pmpp=0.26 kva=0.26 irradiance=1 temperature=25 %cutin=20 %cutout=20 effcurve=MyEff P-TCurve=MyPvsT Daily=IRRAD_DIA TDaily=TEMP_DIA
New PVSystem.GD_c014ad4bce5cfab8471fd6a62372af09616ea39589940a0216b70761690dc518_3 phases=1 bus1=node_418498371.3.4 conn=wye kv=0.1270 pf=1 pmpp=0.26 kva=0.26 irradiance=1 temperature=25 %cutin=20 %cutout=20 effcurve=MyEff P-TCurve=MyPvsT Daily=IRRAD_DIA TDaily=TEMP_DIA
New PVSystem.GD_2bb36df6e30e3a372b9405123a2b1cd49dc10108205e06f483a5a08d7f962b64_1 phases=1 bus1=node_418498371.1.4 conn=wye kv=0.1270 pf=1 pmpp=0.32 kva=0.32 irradiance=1 temperature=25 %cutin=20 %cutout=20 effcurve=MyEff P-TCurve=MyPvsT Daily=IRRAD_DIA TDaily=TEMP_DIA
New PVSystem.GD_2bb36df6e30e3a372b9405123a2b1cd49dc10108205e06f483a5a08d7f962b64_2 phases=1 bus1=node_418498371.2.4 conn=wye kv=0.1270 pf=1 pmpp=0.32 kva=0.32 irradiance=1 temperature=25 %cutin=20 %cutout=20 effcurve=MyEff P-TCurve=MyPvsT Daily=IRRAD_DIA TDaily=TEMP_DIA
New PVSystem.GD_2bb36df6e30e3a372b9405123a2b1cd49dc10108205e06f483a5a08d7f962b64_3 phases=1 bus1=node_418498371.3.4 conn=wye kv=0.1270 pf=1 pmpp=0.32 kva=0.32 irradiance=1 temperature=25 %cutin=20 %cutout=20 effcurve=MyEff P-TCurve=MyPvsT Daily=IRRAD_DIA TDaily=TEMP_DIA
New PVSystem.GD_7e5eb62ba2adfe31880a1552431c22843d3076c5b3bb1f530666109f923fdb7d_1 phases=1 bus1=node_418471383.1.4 conn=wye kv=0.1270 pf=1 pmpp=0.83 kva=0.83 irradiance=1 temperature=25 %cutin=20 %cutout=20 effcurve=MyEff P-TCurve=MyPvsT Daily=IRRAD_DIA TDaily=TEMP_DIA
New PVSystem.GD_7e5eb62ba2adfe31880a1552431c22843d3076c5b3bb1f530666109f923fdb7d_2 phases=1 bus1=node_418471383.2.4 conn=wye kv=0.1270 pf=1 pmpp=0.83 kva=0.83 irradiance=1 temperature=25 %cutin=20 %cutout=20 effcurve=MyEff P-TCurve=MyPvsT Daily=IRRAD_DIA TDaily=TEMP_DIA
New PVSystem.GD_7e5eb62ba2adfe31880a1552431c22843d3076c5b3bb1f530666109f923fdb7d_3 phases=1 bus1=node_418471383.3.4 conn=wye kv=0.1270 pf=1 pmpp=0.83 kva=0.83 irradiance=1 temperature=25 %cutin=20 %cutout=20 effcurve=MyEff P-TCurve=MyPvsT Daily=IRRAD_DIA TDaily=TEMP_DIA
New PVSystem.GD_1b56ebf1c51d733a6f7f1a822e49298bb70c47436510b0c6ea43874a6e13252d_1 phases=1 bus1=node_418471383.1.4 conn=wye kv=0.1270 pf=1 pmpp=0.85 kva=0.85 irradiance=1 temperature=25 %cutin=20 %cutout=20 effcurve=MyEff P-TCurve=MyPvsT Daily=IRRAD_DIA TDaily=TEMP_DIA
New PVSystem.GD_1b56ebf1c51d733a6f7f1a822e49298bb70c47436510b0c6ea43874a6e13252d_2 phases=1 bus1=node_418471383.2.4 conn=wye kv=0.1270 pf=1 pmpp=0.85 kva=0.85 irradiance=1 temperature=25 %cutin=20 %cutout=20 effcurve=MyEff P-TCurve=MyPvsT Daily=IRRAD_DIA TDaily=TEMP_DIA
New PVSystem.GD_1b56ebf1c51d733a6f7f1a822e49298bb70c47436510b0c6ea43874a6e13252d_3 phases=1 bus1=node_418471383.3.4 conn=wye kv=0.1270 pf=1 pmpp=0.85 kva=0.85 irradiance=1 temperature=25 %cutin=20 %cutout=20 effcurve=MyEff P-TCurve=MyPvsT Daily=IRRAD_DIA TDaily=TEMP_DIA
New PVSystem.GD_b317f22fc7bc4b41e38e819dbe3b18ace77d5f9026f0f471638881ba05f37448_1 phases=1 bus1=node_418500057.1.4 conn=wye kv=0.1270 pf=1 pmpp=0.58 kva=0.58 irradiance=1 temperature=25 %cutin=20 %cutout=20 effcurve=MyEff P-TCurve=MyPvsT Daily=IRRAD_DIA TDaily=TEMP_DIA
New PVSystem.GD_b317f22fc7bc4b41e38e819dbe3b18ace77d5f9026f0f471638881ba05f37448_2 phases=1 bus1=node_418500057.2.4 conn=wye kv=0.1270 pf=1 pmpp=0.58 kva=0.58 irradiance=1 temperature=25 %cutin=20 %cutout=20 effcurve=MyEff P-TCurve=MyPvsT Daily=IRRAD_DIA TDaily=TEMP_DIA
New PVSystem.GD_b317f22fc7bc4b41e38e819dbe3b18ace77d5f9026f0f471638881ba05f37448_3 phases=1 bus1=node_418500057.3.4 conn=wye kv=0.1270 pf=1 pmpp=0.58 kva=0.58 irradiance=1 temperature=25 %cutin=20 %cutout=20 effcurve=MyEff P-TCurve=MyPvsT Daily=IRRAD_DIA TDaily=TEMP_DIA
New PVSystem.GD_2d50b748166211d2e35f63100fa8793a352b2e59c70ace640b285fcb32d7ce10_1 phases=1 bus1=node_418500057.1.4 conn=wye kv=0.1270 pf=1 pmpp=0.30 kva=0.30 irradiance=1 temperature=25 %cutin=20 %cutout=20 effcurve=MyEff P-TCurve=MyPvsT Daily=IRRAD_DIA TDaily=TEMP_DIA
New PVSystem.GD_2d50b748166211d2e35f63100fa8793a352b2e59c70ace640b285fcb32d7ce10_2 phases=1 bus1=node_418500057.2.4 conn=wye kv=0.1270 pf=1 pmpp=0.30 kva=0.30 irradiance=1 temperature=25 %cutin=20 %cutout=20 effcurve=MyEff P-TCurve=MyPvsT Daily=IRRAD_DIA TDaily=TEMP_DIA
New PVSystem.GD_2d50b748166211d2e35f63100fa8793a352b2e59c70ace640b285fcb32d7ce10_3 phases=1 bus1=node_418500057.3.4 conn=wye kv=0.1270 pf=1 pmpp=0.30 kva=0.30 irradiance=1 temperature=25 %cutin=20 %cutout=20 effcurve=MyEff P-TCurve=MyPvsT Daily=IRRAD_DIA TDaily=TEMP_DIA
New PVSystem.GD_183b516da47e42949f8f76152513f0ea8c8abbdc512de782516b569f51e3112d_1 phases=1 bus1=node_418500057.1.4 conn=wye kv=0.1270 pf=1 pmpp=0.01 kva=0.10 irradiance=1 temperature=25 %cutin=20 %cutout=20 effcurve=MyEff P-TCurve=MyPvsT Daily=IRRAD_DIA TDaily=TEMP_DIA
New PVSystem.GD_183b516da47e42949f8f76152513f0ea8c8abbdc512de782516b569f51e3112d_2 phases=1 bus1=node_418500057.2.4 conn=wye kv=0.1270 pf=1 pmpp=0.01 kva=0.10 irradiance=1 temperature=25 %cutin=20 %cutout=20 effcurve=MyEff P-TCurve=MyPvsT Daily=IRRAD_DIA TDaily=TEMP_DIA
New PVSystem.GD_183b516da47e42949f8f76152513f0ea8c8abbdc512de782516b569f51e3112d_3 phases=1 bus1=node_418500057.3.4 conn=wye kv=0.1270 pf=1 pmpp=0.01 kva=0.10 irradiance=1 temperature=25 %cutin=20 %cutout=20 effcurve=MyEff P-TCurve=MyPvsT Daily=IRRAD_DIA TDaily=TEMP_DIA
New PVSystem.GD_421691f46685e4635f44754bcc40ad8d6220ecce69e7375f011fe50d90616cc4_1 phases=1 bus1=node_417592597.1.4 conn=wye kv=0.1270 pf=1 pmpp=1.51 kva=1.51 irradiance=1 temperature=25 %cutin=20 %cutout=20 effcurve=MyEff P-TCurve=MyPvsT Daily=IRRAD_DIA TDaily=TEMP_DIA
New PVSystem.GD_421691f46685e4635f44754bcc40ad8d6220ecce69e7375f011fe50d90616cc4_2 phases=1 bus1=node_417592597.2.4 conn=wye kv=0.1270 pf=1 pmpp=1.51 kva=1.51 irradiance=1 temperature=25 %cutin=20 %cutout=20 effcurve=MyEff P-TCurve=MyPvsT Daily=IRRAD_DIA TDaily=TEMP_DIA
New PVSystem.GD_421691f46685e4635f44754bcc40ad8d6220ecce69e7375f011fe50d90616cc4_3 phases=1 bus1=node_417592597.3.4 conn=wye kv=0.1270 pf=1 pmpp=1.51 kva=1.51 irradiance=1 temperature=25 %cutin=20 %cutout=20 effcurve=MyEff P-TCurve=MyPvsT Daily=IRRAD_DIA TDaily=TEMP_DIA
New PVSystem.GD_12be8258b50616fc75fff4c6f1655f350a18e242b274edd0644da8c38e28bf64_1 phases=1 bus1=node_417592597.1.4 conn=wye kv=0.1270 pf=1 pmpp=0.35 kva=0.35 irradiance=1 temperature=25 %cutin=20 %cutout=20 effcurve=MyEff P-TCurve=MyPvsT Daily=IRRAD_DIA TDaily=TEMP_DIA
New PVSystem.GD_12be8258b50616fc75fff4c6f1655f350a18e242b274edd0644da8c38e28bf64_2 phases=1 bus1=node_417592597.2.4 conn=wye kv=0.1270 pf=1 pmpp=0.35 kva=0.35 irradiance=1 temperature=25 %cutin=20 %cutout=20 effcurve=MyEff P-TCurve=MyPvsT Daily=IRRAD_DIA TDaily=TEMP_DIA
New PVSystem.GD_12be8258b50616fc75fff4c6f1655f350a18e242b274edd0644da8c38e28bf64_3 phases=1 bus1=node_417592597.3.4 conn=wye kv=0.1270 pf=1 pmpp=0.35 kva=0.35 irradiance=1 temperature=25 %cutin=20 %cutout=20 effcurve=MyEff P-TCurve=MyPvsT Daily=IRRAD_DIA TDaily=TEMP_DIA
New PVSystem.GD_600b4ee37b0f5eb537d5807871fcb67d325484c6d87af1a2a8100d296826434f_1 phases=1 bus1=node_417592597.1.4 conn=wye kv=0.1270 pf=1 pmpp=0.19 kva=0.19 irradiance=1 temperature=25 %cutin=20 %cutout=20 effcurve=MyEff P-TCurve=MyPvsT Daily=IRRAD_DIA TDaily=TEMP_DIA
New PVSystem.GD_600b4ee37b0f5eb537d5807871fcb67d325484c6d87af1a2a8100d296826434f_2 phases=1 bus1=node_417592597.2.4 conn=wye kv=0.1270 pf=1 pmpp=0.19 kva=0.19 irradiance=1 temperature=25 %cutin=20 %cutout=20 effcurve=MyEff P-TCurve=MyPvsT Daily=IRRAD_DIA TDaily=TEMP_DIA
New PVSystem.GD_600b4ee37b0f5eb537d5807871fcb67d325484c6d87af1a2a8100d296826434f_3 phases=1 bus1=node_417592597.3.4 conn=wye kv=0.1270 pf=1 pmpp=0.19 kva=0.19 irradiance=1 temperature=25 %cutin=20 %cutout=20 effcurve=MyEff P-TCurve=MyPvsT Daily=IRRAD_DIA TDaily=TEMP_DIA
New PVSystem.GD_a9f82233ff8d80dc698f4206231d357678afbacf01ad8cac555299d6b0471fd3_1 phases=1 bus1=node_418468635.1.4 conn=wye kv=0.1270 pf=1 pmpp=3.19 kva=3.19 irradiance=1 temperature=25 %cutin=20 %cutout=20 effcurve=MyEff P-TCurve=MyPvsT Daily=IRRAD_DIA TDaily=TEMP_DIA
New PVSystem.GD_a9f82233ff8d80dc698f4206231d357678afbacf01ad8cac555299d6b0471fd3_2 phases=1 bus1=node_418468635.2.4 conn=wye kv=0.1270 pf=1 pmpp=3.19 kva=3.19 irradiance=1 temperature=25 %cutin=20 %cutout=20 effcurve=MyEff P-TCurve=MyPvsT Daily=IRRAD_DIA TDaily=TEMP_DIA
New PVSystem.GD_a9f82233ff8d80dc698f4206231d357678afbacf01ad8cac555299d6b0471fd3_3 phases=1 bus1=node_418468635.3.4 conn=wye kv=0.1270 pf=1 pmpp=3.19 kva=3.19 irradiance=1 temperature=25 %cutin=20 %cutout=20 effcurve=MyEff P-TCurve=MyPvsT Daily=IRRAD_DIA TDaily=TEMP_DIA
New PVSystem.GD_d996628645176dcc88b7bf3cad187a66092bafaddd0ff4b3f4b8784a90bc3211_1 phases=1 bus1=node_418527684.1.4 conn=wye kv=0.1270 pf=1 pmpp=0.70 kva=0.70 irradiance=1 temperature=25 %cutin=20 %cutout=20 effcurve=MyEff P-TCurve=MyPvsT Daily=IRRAD_DIA TDaily=TEMP_DIA
New PVSystem.GD_d996628645176dcc88b7bf3cad187a66092bafaddd0ff4b3f4b8784a90bc3211_2 phases=1 bus1=node_418527684.2.4 conn=wye kv=0.1270 pf=1 pmpp=0.70 kva=0.70 irradiance=1 temperature=25 %cutin=20 %cutout=20 effcurve=MyEff P-TCurve=MyPvsT Daily=IRRAD_DIA TDaily=TEMP_DIA
New PVSystem.GD_d996628645176dcc88b7bf3cad187a66092bafaddd0ff4b3f4b8784a90bc3211_3 phases=1 bus1=node_418527684.3.4 conn=wye kv=0.1270 pf=1 pmpp=0.70 kva=0.70 irradiance=1 temperature=25 %cutin=20 %cutout=20 effcurve=MyEff P-TCurve=MyPvsT Daily=IRRAD_DIA TDaily=TEMP_DIA
New PVSystem.GD_c89a5c9d05a20f19939bf9be1254c5b31b1c9b9ba60dda783326e7ecfd832e85_1 phases=1 bus1=node_1214185467.1.4 conn=wye kv=0.1270 pf=1 pmpp=0.34 kva=0.34 irradiance=1 temperature=25 %cutin=20 %cutout=20 effcurve=MyEff P-TCurve=MyPvsT Daily=IRRAD_DIA TDaily=TEMP_DIA
New PVSystem.GD_c89a5c9d05a20f19939bf9be1254c5b31b1c9b9ba60dda783326e7ecfd832e85_2 phases=1 bus1=node_1214185467.2.4 conn=wye kv=0.1270 pf=1 pmpp=0.34 kva=0.34 irradiance=1 temperature=25 %cutin=20 %cutout=20 effcurve=MyEff P-TCurve=MyPvsT Daily=IRRAD_DIA TDaily=TEMP_DIA
New PVSystem.GD_c89a5c9d05a20f19939bf9be1254c5b31b1c9b9ba60dda783326e7ecfd832e85_3 phases=1 bus1=node_1214185467.3.4 conn=wye kv=0.1270 pf=1 pmpp=0.34 kva=0.34 irradiance=1 temperature=25 %cutin=20 %cutout=20 effcurve=MyEff P-TCurve=MyPvsT Daily=IRRAD_DIA TDaily=TEMP_DIA
New PVSystem.GD_f23ca3f66ae134bd87b723ad41700eea51fbdd65bfa7b06808c464853fcc25a4_1 phases=1 bus1=node_418468236.1.4 conn=wye kv=0.1270 pf=1 pmpp=0.30 kva=0.30 irradiance=1 temperature=25 %cutin=20 %cutout=20 effcurve=MyEff P-TCurve=MyPvsT Daily=IRRAD_DIA TDaily=TEMP_DIA
New PVSystem.GD_f23ca3f66ae134bd87b723ad41700eea51fbdd65bfa7b06808c464853fcc25a4_2 phases=1 bus1=node_418468236.2.4 conn=wye kv=0.1270 pf=1 pmpp=0.30 kva=0.30 irradiance=1 temperature=25 %cutin=20 %cutout=20 effcurve=MyEff P-TCurve=MyPvsT Daily=IRRAD_DIA TDaily=TEMP_DIA
New PVSystem.GD_f23ca3f66ae134bd87b723ad41700eea51fbdd65bfa7b06808c464853fcc25a4_3 phases=1 bus1=node_418468236.3.4 conn=wye kv=0.1270 pf=1 pmpp=0.30 kva=0.30 irradiance=1 temperature=25 %cutin=20 %cutout=20 effcurve=MyEff P-TCurve=MyPvsT Daily=IRRAD_DIA TDaily=TEMP_DIA
New PVSystem.GD_530dd23dd00e70c0b7373fea81939f6048b38628968618d27dbb62d29af8172d_1 phases=1 bus1=node_418468236.1.4 conn=wye kv=0.1270 pf=1 pmpp=0.80 kva=0.80 irradiance=1 temperature=25 %cutin=20 %cutout=20 effcurve=MyEff P-TCurve=MyPvsT Daily=IRRAD_DIA TDaily=TEMP_DIA
New PVSystem.GD_530dd23dd00e70c0b7373fea81939f6048b38628968618d27dbb62d29af8172d_2 phases=1 bus1=node_418468236.2.4 conn=wye kv=0.1270 pf=1 pmpp=0.80 kva=0.80 irradiance=1 temperature=25 %cutin=20 %cutout=20 effcurve=MyEff P-TCurve=MyPvsT Daily=IRRAD_DIA TDaily=TEMP_DIA
New PVSystem.GD_530dd23dd00e70c0b7373fea81939f6048b38628968618d27dbb62d29af8172d_3 phases=1 bus1=node_418468236.3.4 conn=wye kv=0.1270 pf=1 pmpp=0.80 kva=0.80 irradiance=1 temperature=25 %cutin=20 %cutout=20 effcurve=MyEff P-TCurve=MyPvsT Daily=IRRAD_DIA TDaily=TEMP_DIA
New PVSystem.GD_dd3d66e1f0df8e7565377059c4fa87f6fd1ab55a971cf679634113fa09d8317c_1 phases=1 bus1=node_418468236.1.4 conn=wye kv=0.1270 pf=1 pmpp=0.58 kva=0.58 irradiance=1 temperature=25 %cutin=20 %cutout=20 effcurve=MyEff P-TCurve=MyPvsT Daily=IRRAD_DIA TDaily=TEMP_DIA
New PVSystem.GD_dd3d66e1f0df8e7565377059c4fa87f6fd1ab55a971cf679634113fa09d8317c_2 phases=1 bus1=node_418468236.2.4 conn=wye kv=0.1270 pf=1 pmpp=0.58 kva=0.58 irradiance=1 temperature=25 %cutin=20 %cutout=20 effcurve=MyEff P-TCurve=MyPvsT Daily=IRRAD_DIA TDaily=TEMP_DIA
New PVSystem.GD_dd3d66e1f0df8e7565377059c4fa87f6fd1ab55a971cf679634113fa09d8317c_3 phases=1 bus1=node_418468236.3.4 conn=wye kv=0.1270 pf=1 pmpp=0.58 kva=0.58 irradiance=1 temperature=25 %cutin=20 %cutout=20 effcurve=MyEff P-TCurve=MyPvsT Daily=IRRAD_DIA TDaily=TEMP_DIA
New PVSystem.GD_2e6a3faaa8cc2477d98d8db2ebd3e2fb32d7d1884f1fd738aa67cfaaa648cef7_1 phases=1 bus1=node_418470669.1.4 conn=wye kv=0.1200 pf=1 pmpp=0.45 kva=0.45 irradiance=1 temperature=25 %cutin=20 %cutout=20 effcurve=MyEff P-TCurve=MyPvsT Daily=IRRAD_DIA TDaily=TEMP_DIA
New PVSystem.GD_2e6a3faaa8cc2477d98d8db2ebd3e2fb32d7d1884f1fd738aa67cfaaa648cef7_2 phases=1 bus1=node_418470669.2.4 conn=wye kv=0.1200 pf=1 pmpp=0.45 kva=0.45 irradiance=1 temperature=25 %cutin=20 %cutout=20 effcurve=MyEff P-TCurve=MyPvsT Daily=IRRAD_DIA TDaily=TEMP_DIA
New PVSystem.GD_7983b1477e0583e9e6c99b8bff2355c5610d9bf95b578ddb7e4e1980d605811d_1 phases=1 bus1=node_418470669.1.4 conn=wye kv=0.1200 pf=1 pmpp=1.09 kva=1.09 irradiance=1 temperature=25 %cutin=20 %cutout=20 effcurve=MyEff P-TCurve=MyPvsT Daily=IRRAD_DIA TDaily=TEMP_DIA
New PVSystem.GD_7983b1477e0583e9e6c99b8bff2355c5610d9bf95b578ddb7e4e1980d605811d_2 phases=1 bus1=node_418470669.2.4 conn=wye kv=0.1200 pf=1 pmpp=1.09 kva=1.09 irradiance=1 temperature=25 %cutin=20 %cutout=20 effcurve=MyEff P-TCurve=MyPvsT Daily=IRRAD_DIA TDaily=TEMP_DIA
New PVSystem.GD_c9b947a62d146d4c5db3f8d284a4402afc6e4c0363be2d3f912c8c1bb6101af6_1 phases=1 bus1=node_162078534.1.4 conn=wye kv=0.1270 pf=1 pmpp=0.43 kva=0.43 irradiance=1 temperature=25 %cutin=20 %cutout=20 effcurve=MyEff P-TCurve=MyPvsT Daily=IRRAD_DIA TDaily=TEMP_DIA
New PVSystem.GD_c9b947a62d146d4c5db3f8d284a4402afc6e4c0363be2d3f912c8c1bb6101af6_2 phases=1 bus1=node_162078534.2.4 conn=wye kv=0.1270 pf=1 pmpp=0.43 kva=0.43 irradiance=1 temperature=25 %cutin=20 %cutout=20 effcurve=MyEff P-TCurve=MyPvsT Daily=IRRAD_DIA TDaily=TEMP_DIA
New PVSystem.GD_c9b947a62d146d4c5db3f8d284a4402afc6e4c0363be2d3f912c8c1bb6101af6_3 phases=1 bus1=node_162078534.3.4 conn=wye kv=0.1270 pf=1 pmpp=0.43 kva=0.43 irradiance=1 temperature=25 %cutin=20 %cutout=20 effcurve=MyEff P-TCurve=MyPvsT Daily=IRRAD_DIA TDaily=TEMP_DIA
New PVSystem.GD_ea24aaabfe6e0348cebfebbb8209c144305b7af10661d89879f47fe154206096_1 phases=1 bus1=node_418498365.1.4 conn=wye kv=0.1270 pf=1 pmpp=0.65 kva=0.65 irradiance=1 temperature=25 %cutin=20 %cutout=20 effcurve=MyEff P-TCurve=MyPvsT Daily=IRRAD_DIA TDaily=TEMP_DIA
New PVSystem.GD_ea24aaabfe6e0348cebfebbb8209c144305b7af10661d89879f47fe154206096_2 phases=1 bus1=node_418498365.2.4 conn=wye kv=0.1270 pf=1 pmpp=0.65 kva=0.65 irradiance=1 temperature=25 %cutin=20 %cutout=20 effcurve=MyEff P-TCurve=MyPvsT Daily=IRRAD_DIA TDaily=TEMP_DIA
New PVSystem.GD_ea24aaabfe6e0348cebfebbb8209c144305b7af10661d89879f47fe154206096_3 phases=1 bus1=node_418498365.3.4 conn=wye kv=0.1270 pf=1 pmpp=0.65 kva=0.65 irradiance=1 temperature=25 %cutin=20 %cutout=20 effcurve=MyEff P-TCurve=MyPvsT Daily=IRRAD_DIA TDaily=TEMP_DIA
New PVSystem.GD_7bd2c3edc122d28f8d2234f160b50d95cb6efddcc6521c5a2868adb14fbfa8a2_1 phases=1 bus1=node_418500381.1.4 conn=wye kv=0.1270 pf=1 pmpp=0.26 kva=0.26 irradiance=1 temperature=25 %cutin=20 %cutout=20 effcurve=MyEff P-TCurve=MyPvsT Daily=IRRAD_DIA TDaily=TEMP_DIA
New PVSystem.GD_7bd2c3edc122d28f8d2234f160b50d95cb6efddcc6521c5a2868adb14fbfa8a2_2 phases=1 bus1=node_418500381.2.4 conn=wye kv=0.1270 pf=1 pmpp=0.26 kva=0.26 irradiance=1 temperature=25 %cutin=20 %cutout=20 effcurve=MyEff P-TCurve=MyPvsT Daily=IRRAD_DIA TDaily=TEMP_DIA
New PVSystem.GD_7bd2c3edc122d28f8d2234f160b50d95cb6efddcc6521c5a2868adb14fbfa8a2_3 phases=1 bus1=node_418500381.3.4 conn=wye kv=0.1270 pf=1 pmpp=0.26 kva=0.26 irradiance=1 temperature=25 %cutin=20 %cutout=20 effcurve=MyEff P-TCurve=MyPvsT Daily=IRRAD_DIA TDaily=TEMP_DIA
New PVSystem.GD_e90f8b4e732026a4b024a44f50686165984bb019533a98fa8def4e949de80493_1 phases=1 bus1=node_418529475.1.4 conn=wye kv=0.1270 pf=1 pmpp=1.20 kva=1.20 irradiance=1 temperature=25 %cutin=20 %cutout=20 effcurve=MyEff P-TCurve=MyPvsT Daily=IRRAD_DIA TDaily=TEMP_DIA
New PVSystem.GD_e90f8b4e732026a4b024a44f50686165984bb019533a98fa8def4e949de80493_2 phases=1 bus1=node_418529475.2.4 conn=wye kv=0.1270 pf=1 pmpp=1.20 kva=1.20 irradiance=1 temperature=25 %cutin=20 %cutout=20 effcurve=MyEff P-TCurve=MyPvsT Daily=IRRAD_DIA TDaily=TEMP_DIA
New PVSystem.GD_e90f8b4e732026a4b024a44f50686165984bb019533a98fa8def4e949de80493_3 phases=1 bus1=node_418529475.3.4 conn=wye kv=0.1270 pf=1 pmpp=1.20 kva=1.20 irradiance=1 temperature=25 %cutin=20 %cutout=20 effcurve=MyEff P-TCurve=MyPvsT Daily=IRRAD_DIA TDaily=TEMP_DIA
New PVSystem.GD_cf6ea1bc50b7bb95fbb17c716d0defacf3f96dcb30fda5e7a5f079a3f7cb20e3_1 phases=1 bus1=node_418529475.1.4 conn=wye kv=0.1270 pf=1 pmpp=1.34 kva=1.34 irradiance=1 temperature=25 %cutin=20 %cutout=20 effcurve=MyEff P-TCurve=MyPvsT Daily=IRRAD_DIA TDaily=TEMP_DIA
New PVSystem.GD_cf6ea1bc50b7bb95fbb17c716d0defacf3f96dcb30fda5e7a5f079a3f7cb20e3_2 phases=1 bus1=node_418529475.2.4 conn=wye kv=0.1270 pf=1 pmpp=1.34 kva=1.34 irradiance=1 temperature=25 %cutin=20 %cutout=20 effcurve=MyEff P-TCurve=MyPvsT Daily=IRRAD_DIA TDaily=TEMP_DIA
New PVSystem.GD_cf6ea1bc50b7bb95fbb17c716d0defacf3f96dcb30fda5e7a5f079a3f7cb20e3_3 phases=1 bus1=node_418529475.3.4 conn=wye kv=0.1270 pf=1 pmpp=1.34 kva=1.34 irradiance=1 temperature=25 %cutin=20 %cutout=20 effcurve=MyEff P-TCurve=MyPvsT Daily=IRRAD_DIA TDaily=TEMP_DIA
New PVSystem.GD_b445034481fd13d046f911bd2de4585b1ea0cd1d6d9bc33590b79b7e00cad711_1 phases=1 bus1=node_418529475.1.4 conn=wye kv=0.1270 pf=1 pmpp=0.45 kva=0.45 irradiance=1 temperature=25 %cutin=20 %cutout=20 effcurve=MyEff P-TCurve=MyPvsT Daily=IRRAD_DIA TDaily=TEMP_DIA
New PVSystem.GD_b445034481fd13d046f911bd2de4585b1ea0cd1d6d9bc33590b79b7e00cad711_2 phases=1 bus1=node_418529475.2.4 conn=wye kv=0.1270 pf=1 pmpp=0.45 kva=0.45 irradiance=1 temperature=25 %cutin=20 %cutout=20 effcurve=MyEff P-TCurve=MyPvsT Daily=IRRAD_DIA TDaily=TEMP_DIA
New PVSystem.GD_b445034481fd13d046f911bd2de4585b1ea0cd1d6d9bc33590b79b7e00cad711_3 phases=1 bus1=node_418529475.3.4 conn=wye kv=0.1270 pf=1 pmpp=0.45 kva=0.45 irradiance=1 temperature=25 %cutin=20 %cutout=20 effcurve=MyEff P-TCurve=MyPvsT Daily=IRRAD_DIA TDaily=TEMP_DIA
New PVSystem.GD_ca3241905670d51e03592ac72f4b399c4959a4026570f25adc5dfb07c5c0077b_1 phases=1 bus1=node_418588608.1.4 conn=wye kv=0.1270 pf=1 pmpp=0.45 kva=0.45 irradiance=1 temperature=25 %cutin=20 %cutout=20 effcurve=MyEff P-TCurve=MyPvsT Daily=IRRAD_DIA TDaily=TEMP_DIA
New PVSystem.GD_ca3241905670d51e03592ac72f4b399c4959a4026570f25adc5dfb07c5c0077b_2 phases=1 bus1=node_418588608.2.4 conn=wye kv=0.1270 pf=1 pmpp=0.45 kva=0.45 irradiance=1 temperature=25 %cutin=20 %cutout=20 effcurve=MyEff P-TCurve=MyPvsT Daily=IRRAD_DIA TDaily=TEMP_DIA
New PVSystem.GD_ca3241905670d51e03592ac72f4b399c4959a4026570f25adc5dfb07c5c0077b_3 phases=1 bus1=node_418588608.3.4 conn=wye kv=0.1270 pf=1 pmpp=0.45 kva=0.45 irradiance=1 temperature=25 %cutin=20 %cutout=20 effcurve=MyEff P-TCurve=MyPvsT Daily=IRRAD_DIA TDaily=TEMP_DIA
New PVSystem.GD_305481506f3ab0ec1dafe9ff84cbc636e44b0447a282fb94a36948ddbdd6abcb_1 phases=1 bus1=node_418557897.1.4 conn=wye kv=0.1270 pf=1 pmpp=2.42 kva=2.42 irradiance=1 temperature=25 %cutin=20 %cutout=20 effcurve=MyEff P-TCurve=MyPvsT Daily=IRRAD_DIA TDaily=TEMP_DIA
New PVSystem.GD_305481506f3ab0ec1dafe9ff84cbc636e44b0447a282fb94a36948ddbdd6abcb_2 phases=1 bus1=node_418557897.2.4 conn=wye kv=0.1270 pf=1 pmpp=2.42 kva=2.42 irradiance=1 temperature=25 %cutin=20 %cutout=20 effcurve=MyEff P-TCurve=MyPvsT Daily=IRRAD_DIA TDaily=TEMP_DIA
New PVSystem.GD_305481506f3ab0ec1dafe9ff84cbc636e44b0447a282fb94a36948ddbdd6abcb_3 phases=1 bus1=node_418557897.3.4 conn=wye kv=0.1270 pf=1 pmpp=2.42 kva=2.42 irradiance=1 temperature=25 %cutin=20 %cutout=20 effcurve=MyEff P-TCurve=MyPvsT Daily=IRRAD_DIA TDaily=TEMP_DIA
New PVSystem.GD_e06ccd7e93b02ec6078432b21ac13d6b2cbed051c558a0ffd818c343b9498941_1 phases=1 bus1=node_418557897.1.4 conn=wye kv=0.1270 pf=1 pmpp=0.41 kva=0.41 irradiance=1 temperature=25 %cutin=20 %cutout=20 effcurve=MyEff P-TCurve=MyPvsT Daily=IRRAD_DIA TDaily=TEMP_DIA
New PVSystem.GD_e06ccd7e93b02ec6078432b21ac13d6b2cbed051c558a0ffd818c343b9498941_2 phases=1 bus1=node_418557897.2.4 conn=wye kv=0.1270 pf=1 pmpp=0.41 kva=0.41 irradiance=1 temperature=25 %cutin=20 %cutout=20 effcurve=MyEff P-TCurve=MyPvsT Daily=IRRAD_DIA TDaily=TEMP_DIA
New PVSystem.GD_e06ccd7e93b02ec6078432b21ac13d6b2cbed051c558a0ffd818c343b9498941_3 phases=1 bus1=node_418557897.3.4 conn=wye kv=0.1270 pf=1 pmpp=0.41 kva=0.41 irradiance=1 temperature=25 %cutin=20 %cutout=20 effcurve=MyEff P-TCurve=MyPvsT Daily=IRRAD_DIA TDaily=TEMP_DIA
New PVSystem.GD_ec52222a63d232320b13c42ec4706d9252bf936cccaed55aa199ad6f00fb0033_1 phases=1 bus1=node_418557897.1.4 conn=wye kv=0.1270 pf=1 pmpp=0.25 kva=0.25 irradiance=1 temperature=25 %cutin=20 %cutout=20 effcurve=MyEff P-TCurve=MyPvsT Daily=IRRAD_DIA TDaily=TEMP_DIA
New PVSystem.GD_ec52222a63d232320b13c42ec4706d9252bf936cccaed55aa199ad6f00fb0033_2 phases=1 bus1=node_418557897.2.4 conn=wye kv=0.1270 pf=1 pmpp=0.25 kva=0.25 irradiance=1 temperature=25 %cutin=20 %cutout=20 effcurve=MyEff P-TCurve=MyPvsT Daily=IRRAD_DIA TDaily=TEMP_DIA
New PVSystem.GD_ec52222a63d232320b13c42ec4706d9252bf936cccaed55aa199ad6f00fb0033_3 phases=1 bus1=node_418557897.3.4 conn=wye kv=0.1270 pf=1 pmpp=0.25 kva=0.25 irradiance=1 temperature=25 %cutin=20 %cutout=20 effcurve=MyEff P-TCurve=MyPvsT Daily=IRRAD_DIA TDaily=TEMP_DIA
New PVSystem.GD_f4ee1f02dba23fdc90103e307f1867c6d157e49360edfaad0742182501c0f498_1 phases=1 bus1=node_418471656.1.4 conn=wye kv=0.1200 pf=1 pmpp=0.39 kva=0.39 irradiance=1 temperature=25 %cutin=20 %cutout=20 effcurve=MyEff P-TCurve=MyPvsT Daily=IRRAD_DIA TDaily=TEMP_DIA
New PVSystem.GD_f4ee1f02dba23fdc90103e307f1867c6d157e49360edfaad0742182501c0f498_2 phases=1 bus1=node_418471656.2.4 conn=wye kv=0.1200 pf=1 pmpp=0.39 kva=0.39 irradiance=1 temperature=25 %cutin=20 %cutout=20 effcurve=MyEff P-TCurve=MyPvsT Daily=IRRAD_DIA TDaily=TEMP_DIA
New PVSystem.GD_33abd4ecec8b6cc3d4097ae7057505738c6166e6148cc39ded76eeccc89fb2bd_1 phases=1 bus1=node_418471656.1.4 conn=wye kv=0.1200 pf=1 pmpp=0.46 kva=0.46 irradiance=1 temperature=25 %cutin=20 %cutout=20 effcurve=MyEff P-TCurve=MyPvsT Daily=IRRAD_DIA TDaily=TEMP_DIA
New PVSystem.GD_33abd4ecec8b6cc3d4097ae7057505738c6166e6148cc39ded76eeccc89fb2bd_2 phases=1 bus1=node_418471656.2.4 conn=wye kv=0.1200 pf=1 pmpp=0.46 kva=0.46 irradiance=1 temperature=25 %cutin=20 %cutout=20 effcurve=MyEff P-TCurve=MyPvsT Daily=IRRAD_DIA TDaily=TEMP_DIA
New PVSystem.GD_82333bb1fc30bc8fbe6e259a70aa2b4e6207b12a7dc639b41cb51a3e4ad38459_1 phases=1 bus1=node_467188433.1.4 conn=wye kv=0.1270 pf=1 pmpp=3.54 kva=3.54 irradiance=1 temperature=25 %cutin=20 %cutout=20 effcurve=MyEff P-TCurve=MyPvsT Daily=IRRAD_DIA TDaily=TEMP_DIA
New PVSystem.GD_82333bb1fc30bc8fbe6e259a70aa2b4e6207b12a7dc639b41cb51a3e4ad38459_2 phases=1 bus1=node_467188433.2.4 conn=wye kv=0.1270 pf=1 pmpp=3.54 kva=3.54 irradiance=1 temperature=25 %cutin=20 %cutout=20 effcurve=MyEff P-TCurve=MyPvsT Daily=IRRAD_DIA TDaily=TEMP_DIA
New PVSystem.GD_82333bb1fc30bc8fbe6e259a70aa2b4e6207b12a7dc639b41cb51a3e4ad38459_3 phases=1 bus1=node_467188433.3.4 conn=wye kv=0.1270 pf=1 pmpp=3.54 kva=3.54 irradiance=1 temperature=25 %cutin=20 %cutout=20 effcurve=MyEff P-TCurve=MyPvsT Daily=IRRAD_DIA TDaily=TEMP_DIA
New PVSystem.GD_5041fae06defd4bb4e4f948678876ac87963f898fc0e358f893ed889ef8bf52f_1 phases=1 bus1=node_418498116.1.4 conn=wye kv=0.1270 pf=1 pmpp=1.41 kva=1.41 irradiance=1 temperature=25 %cutin=20 %cutout=20 effcurve=MyEff P-TCurve=MyPvsT Daily=IRRAD_DIA TDaily=TEMP_DIA
New PVSystem.GD_5041fae06defd4bb4e4f948678876ac87963f898fc0e358f893ed889ef8bf52f_2 phases=1 bus1=node_418498116.2.4 conn=wye kv=0.1270 pf=1 pmpp=1.41 kva=1.41 irradiance=1 temperature=25 %cutin=20 %cutout=20 effcurve=MyEff P-TCurve=MyPvsT Daily=IRRAD_DIA TDaily=TEMP_DIA
New PVSystem.GD_5041fae06defd4bb4e4f948678876ac87963f898fc0e358f893ed889ef8bf52f_3 phases=1 bus1=node_418498116.3.4 conn=wye kv=0.1270 pf=1 pmpp=1.41 kva=1.41 irradiance=1 temperature=25 %cutin=20 %cutout=20 effcurve=MyEff P-TCurve=MyPvsT Daily=IRRAD_DIA TDaily=TEMP_DIA
New PVSystem.GD_1c364dc5f50b06754fb1db4b6a2e522b3a44648fdbbcbf8e1f948ea44b4064a8_1 phases=1 bus1=node_417592879.1.4 conn=wye kv=0.1270 pf=1 pmpp=0.50 kva=0.50 irradiance=1 temperature=25 %cutin=20 %cutout=20 effcurve=MyEff P-TCurve=MyPvsT Daily=IRRAD_DIA TDaily=TEMP_DIA
New PVSystem.GD_1c364dc5f50b06754fb1db4b6a2e522b3a44648fdbbcbf8e1f948ea44b4064a8_2 phases=1 bus1=node_417592879.2.4 conn=wye kv=0.1270 pf=1 pmpp=0.50 kva=0.50 irradiance=1 temperature=25 %cutin=20 %cutout=20 effcurve=MyEff P-TCurve=MyPvsT Daily=IRRAD_DIA TDaily=TEMP_DIA
New PVSystem.GD_1c364dc5f50b06754fb1db4b6a2e522b3a44648fdbbcbf8e1f948ea44b4064a8_3 phases=1 bus1=node_417592879.3.4 conn=wye kv=0.1270 pf=1 pmpp=0.50 kva=0.50 irradiance=1 temperature=25 %cutin=20 %cutout=20 effcurve=MyEff P-TCurve=MyPvsT Daily=IRRAD_DIA TDaily=TEMP_DIA
New PVSystem.GD_225b5f327bb9a005519ccda1895aba6bcd6693e88e7d591cf2621fbeee744170_1 phases=1 bus1=node_417592879.1.4 conn=wye kv=0.1270 pf=1 pmpp=1.13 kva=1.13 irradiance=1 temperature=25 %cutin=20 %cutout=20 effcurve=MyEff P-TCurve=MyPvsT Daily=IRRAD_DIA TDaily=TEMP_DIA
New PVSystem.GD_225b5f327bb9a005519ccda1895aba6bcd6693e88e7d591cf2621fbeee744170_2 phases=1 bus1=node_417592879.2.4 conn=wye kv=0.1270 pf=1 pmpp=1.13 kva=1.13 irradiance=1 temperature=25 %cutin=20 %cutout=20 effcurve=MyEff P-TCurve=MyPvsT Daily=IRRAD_DIA TDaily=TEMP_DIA
New PVSystem.GD_225b5f327bb9a005519ccda1895aba6bcd6693e88e7d591cf2621fbeee744170_3 phases=1 bus1=node_417592879.3.4 conn=wye kv=0.1270 pf=1 pmpp=1.13 kva=1.13 irradiance=1 temperature=25 %cutin=20 %cutout=20 effcurve=MyEff P-TCurve=MyPvsT Daily=IRRAD_DIA TDaily=TEMP_DIA
New PVSystem.GD_59e625c77340f8990a64fd254f9b4424b6646ea55a062f73a8d6ae54dac3114e_1 phases=1 bus1=node_418467933.1.4 conn=wye kv=0.1270 pf=1 pmpp=1.40 kva=1.40 irradiance=1 temperature=25 %cutin=20 %cutout=20 effcurve=MyEff P-TCurve=MyPvsT Daily=IRRAD_DIA TDaily=TEMP_DIA
New PVSystem.GD_59e625c77340f8990a64fd254f9b4424b6646ea55a062f73a8d6ae54dac3114e_2 phases=1 bus1=node_418467933.2.4 conn=wye kv=0.1270 pf=1 pmpp=1.40 kva=1.40 irradiance=1 temperature=25 %cutin=20 %cutout=20 effcurve=MyEff P-TCurve=MyPvsT Daily=IRRAD_DIA TDaily=TEMP_DIA
New PVSystem.GD_59e625c77340f8990a64fd254f9b4424b6646ea55a062f73a8d6ae54dac3114e_3 phases=1 bus1=node_418467933.3.4 conn=wye kv=0.1270 pf=1 pmpp=1.40 kva=1.40 irradiance=1 temperature=25 %cutin=20 %cutout=20 effcurve=MyEff P-TCurve=MyPvsT Daily=IRRAD_DIA TDaily=TEMP_DIA
New PVSystem.GD_0e245933dca772c37a0756b501e5bc014424a7f86f0489b80981b2894a8d4b6e_1 phases=1 bus1=node_418589364.1.4 conn=wye kv=0.1270 pf=1 pmpp=0.46 kva=0.46 irradiance=1 temperature=25 %cutin=20 %cutout=20 effcurve=MyEff P-TCurve=MyPvsT Daily=IRRAD_DIA TDaily=TEMP_DIA
New PVSystem.GD_0e245933dca772c37a0756b501e5bc014424a7f86f0489b80981b2894a8d4b6e_2 phases=1 bus1=node_418589364.2.4 conn=wye kv=0.1270 pf=1 pmpp=0.46 kva=0.46 irradiance=1 temperature=25 %cutin=20 %cutout=20 effcurve=MyEff P-TCurve=MyPvsT Daily=IRRAD_DIA TDaily=TEMP_DIA
New PVSystem.GD_0e245933dca772c37a0756b501e5bc014424a7f86f0489b80981b2894a8d4b6e_3 phases=1 bus1=node_418589364.3.4 conn=wye kv=0.1270 pf=1 pmpp=0.46 kva=0.46 irradiance=1 temperature=25 %cutin=20 %cutout=20 effcurve=MyEff P-TCurve=MyPvsT Daily=IRRAD_DIA TDaily=TEMP_DIA
New PVSystem.GD_7a839a2f5af59792c8102d19ca2942284a5ff1c4bb47224b78f7c2bfe7463686_1 phases=1 bus1=node_418589364.1.4 conn=wye kv=0.1270 pf=1 pmpp=0.40 kva=0.40 irradiance=1 temperature=25 %cutin=20 %cutout=20 effcurve=MyEff P-TCurve=MyPvsT Daily=IRRAD_DIA TDaily=TEMP_DIA
New PVSystem.GD_7a839a2f5af59792c8102d19ca2942284a5ff1c4bb47224b78f7c2bfe7463686_2 phases=1 bus1=node_418589364.2.4 conn=wye kv=0.1270 pf=1 pmpp=0.40 kva=0.40 irradiance=1 temperature=25 %cutin=20 %cutout=20 effcurve=MyEff P-TCurve=MyPvsT Daily=IRRAD_DIA TDaily=TEMP_DIA
New PVSystem.GD_7a839a2f5af59792c8102d19ca2942284a5ff1c4bb47224b78f7c2bfe7463686_3 phases=1 bus1=node_418589364.3.4 conn=wye kv=0.1270 pf=1 pmpp=0.40 kva=0.40 irradiance=1 temperature=25 %cutin=20 %cutout=20 effcurve=MyEff P-TCurve=MyPvsT Daily=IRRAD_DIA TDaily=TEMP_DIA
New PVSystem.GD_a4ebccae39289c223e370da2d1d6169e2f0ac670df4f4511da69e3eeecf1c179_1 phases=1 bus1=node_417595726.1.4 conn=wye kv=0.1270 pf=1 pmpp=0.26 kva=0.26 irradiance=1 temperature=25 %cutin=20 %cutout=20 effcurve=MyEff P-TCurve=MyPvsT Daily=IRRAD_DIA TDaily=TEMP_DIA
New PVSystem.GD_a4ebccae39289c223e370da2d1d6169e2f0ac670df4f4511da69e3eeecf1c179_2 phases=1 bus1=node_417595726.2.4 conn=wye kv=0.1270 pf=1 pmpp=0.26 kva=0.26 irradiance=1 temperature=25 %cutin=20 %cutout=20 effcurve=MyEff P-TCurve=MyPvsT Daily=IRRAD_DIA TDaily=TEMP_DIA
New PVSystem.GD_a4ebccae39289c223e370da2d1d6169e2f0ac670df4f4511da69e3eeecf1c179_3 phases=1 bus1=node_417595726.3.4 conn=wye kv=0.1270 pf=1 pmpp=0.26 kva=0.26 irradiance=1 temperature=25 %cutin=20 %cutout=20 effcurve=MyEff P-TCurve=MyPvsT Daily=IRRAD_DIA TDaily=TEMP_DIA
New PVSystem.GD_5ce41e0d4222886b8762a50ce17ef43115f5a3f0b2550118afe6073eba69ff7c_1 phases=1 bus1=node_417595726.1.4 conn=wye kv=0.1270 pf=1 pmpp=0.77 kva=0.77 irradiance=1 temperature=25 %cutin=20 %cutout=20 effcurve=MyEff P-TCurve=MyPvsT Daily=IRRAD_DIA TDaily=TEMP_DIA
New PVSystem.GD_5ce41e0d4222886b8762a50ce17ef43115f5a3f0b2550118afe6073eba69ff7c_2 phases=1 bus1=node_417595726.2.4 conn=wye kv=0.1270 pf=1 pmpp=0.77 kva=0.77 irradiance=1 temperature=25 %cutin=20 %cutout=20 effcurve=MyEff P-TCurve=MyPvsT Daily=IRRAD_DIA TDaily=TEMP_DIA
New PVSystem.GD_5ce41e0d4222886b8762a50ce17ef43115f5a3f0b2550118afe6073eba69ff7c_3 phases=1 bus1=node_417595726.3.4 conn=wye kv=0.1270 pf=1 pmpp=0.77 kva=0.77 irradiance=1 temperature=25 %cutin=20 %cutout=20 effcurve=MyEff P-TCurve=MyPvsT Daily=IRRAD_DIA TDaily=TEMP_DIA
New PVSystem.GD_55121fe9206846a1950a7dc9ac043489b15e4501515abfbed8c73c2418db6ad4_1 phases=1 bus1=node_418471356.1.4 conn=wye kv=0.1270 pf=1 pmpp=0.51 kva=0.51 irradiance=1 temperature=25 %cutin=20 %cutout=20 effcurve=MyEff P-TCurve=MyPvsT Daily=IRRAD_DIA TDaily=TEMP_DIA
New PVSystem.GD_55121fe9206846a1950a7dc9ac043489b15e4501515abfbed8c73c2418db6ad4_2 phases=1 bus1=node_418471356.2.4 conn=wye kv=0.1270 pf=1 pmpp=0.51 kva=0.51 irradiance=1 temperature=25 %cutin=20 %cutout=20 effcurve=MyEff P-TCurve=MyPvsT Daily=IRRAD_DIA TDaily=TEMP_DIA
New PVSystem.GD_55121fe9206846a1950a7dc9ac043489b15e4501515abfbed8c73c2418db6ad4_3 phases=1 bus1=node_418471356.3.4 conn=wye kv=0.1270 pf=1 pmpp=0.51 kva=0.51 irradiance=1 temperature=25 %cutin=20 %cutout=20 effcurve=MyEff P-TCurve=MyPvsT Daily=IRRAD_DIA TDaily=TEMP_DIA
New PVSystem.GD_cf8b7c78cd64054ec4358dcbfa290c920b323d642f93310e458d09c4b568c422_1 phases=1 bus1=node_418471356.1.4 conn=wye kv=0.1270 pf=1 pmpp=0.63 kva=0.63 irradiance=1 temperature=25 %cutin=20 %cutout=20 effcurve=MyEff P-TCurve=MyPvsT Daily=IRRAD_DIA TDaily=TEMP_DIA
New PVSystem.GD_cf8b7c78cd64054ec4358dcbfa290c920b323d642f93310e458d09c4b568c422_2 phases=1 bus1=node_418471356.2.4 conn=wye kv=0.1270 pf=1 pmpp=0.63 kva=0.63 irradiance=1 temperature=25 %cutin=20 %cutout=20 effcurve=MyEff P-TCurve=MyPvsT Daily=IRRAD_DIA TDaily=TEMP_DIA
New PVSystem.GD_cf8b7c78cd64054ec4358dcbfa290c920b323d642f93310e458d09c4b568c422_3 phases=1 bus1=node_418471356.3.4 conn=wye kv=0.1270 pf=1 pmpp=0.63 kva=0.63 irradiance=1 temperature=25 %cutin=20 %cutout=20 effcurve=MyEff P-TCurve=MyPvsT Daily=IRRAD_DIA TDaily=TEMP_DIA
New PVSystem.GD_cad2fd8ead08dd329b52fd20839dc440c8bb7154b54b8e699958123916b47bd3_1 phases=1 bus1=node_418471356.1.4 conn=wye kv=0.1270 pf=1 pmpp=0.56 kva=0.56 irradiance=1 temperature=25 %cutin=20 %cutout=20 effcurve=MyEff P-TCurve=MyPvsT Daily=IRRAD_DIA TDaily=TEMP_DIA
New PVSystem.GD_cad2fd8ead08dd329b52fd20839dc440c8bb7154b54b8e699958123916b47bd3_2 phases=1 bus1=node_418471356.2.4 conn=wye kv=0.1270 pf=1 pmpp=0.56 kva=0.56 irradiance=1 temperature=25 %cutin=20 %cutout=20 effcurve=MyEff P-TCurve=MyPvsT Daily=IRRAD_DIA TDaily=TEMP_DIA
New PVSystem.GD_cad2fd8ead08dd329b52fd20839dc440c8bb7154b54b8e699958123916b47bd3_3 phases=1 bus1=node_418471356.3.4 conn=wye kv=0.1270 pf=1 pmpp=0.56 kva=0.56 irradiance=1 temperature=25 %cutin=20 %cutout=20 effcurve=MyEff P-TCurve=MyPvsT Daily=IRRAD_DIA TDaily=TEMP_DIA
New PVSystem.GD_95d979660d2f6e2e0abe92f1b89b4d342c21e441d0ccb9916baf8822bf5388af_1 phases=1 bus1=node_418498182.1.4 conn=wye kv=0.1270 pf=1 pmpp=0.21 kva=0.21 irradiance=1 temperature=25 %cutin=20 %cutout=20 effcurve=MyEff P-TCurve=MyPvsT Daily=IRRAD_DIA TDaily=TEMP_DIA
New PVSystem.GD_95d979660d2f6e2e0abe92f1b89b4d342c21e441d0ccb9916baf8822bf5388af_2 phases=1 bus1=node_418498182.2.4 conn=wye kv=0.1270 pf=1 pmpp=0.21 kva=0.21 irradiance=1 temperature=25 %cutin=20 %cutout=20 effcurve=MyEff P-TCurve=MyPvsT Daily=IRRAD_DIA TDaily=TEMP_DIA
New PVSystem.GD_95d979660d2f6e2e0abe92f1b89b4d342c21e441d0ccb9916baf8822bf5388af_3 phases=1 bus1=node_418498182.3.4 conn=wye kv=0.1270 pf=1 pmpp=0.21 kva=0.21 irradiance=1 temperature=25 %cutin=20 %cutout=20 effcurve=MyEff P-TCurve=MyPvsT Daily=IRRAD_DIA TDaily=TEMP_DIA
New PVSystem.GD_807cc4e98ce544943dad104f7fa790946e4b73fb9ce7d9fc91b4dd37cc0abf2a_1 phases=1 bus1=node_418498182.1.4 conn=wye kv=0.1270 pf=1 pmpp=0.49 kva=0.49 irradiance=1 temperature=25 %cutin=20 %cutout=20 effcurve=MyEff P-TCurve=MyPvsT Daily=IRRAD_DIA TDaily=TEMP_DIA
New PVSystem.GD_807cc4e98ce544943dad104f7fa790946e4b73fb9ce7d9fc91b4dd37cc0abf2a_2 phases=1 bus1=node_418498182.2.4 conn=wye kv=0.1270 pf=1 pmpp=0.49 kva=0.49 irradiance=1 temperature=25 %cutin=20 %cutout=20 effcurve=MyEff P-TCurve=MyPvsT Daily=IRRAD_DIA TDaily=TEMP_DIA
New PVSystem.GD_807cc4e98ce544943dad104f7fa790946e4b73fb9ce7d9fc91b4dd37cc0abf2a_3 phases=1 bus1=node_418498182.3.4 conn=wye kv=0.1270 pf=1 pmpp=0.49 kva=0.49 irradiance=1 temperature=25 %cutin=20 %cutout=20 effcurve=MyEff P-TCurve=MyPvsT Daily=IRRAD_DIA TDaily=TEMP_DIA
New PVSystem.GD_9cb33ce279faa72159bb1bcec4f20fe3f1de850850a682b357f3988660c77926_1 phases=1 bus1=node_418498182.1.4 conn=wye kv=0.1270 pf=1 pmpp=0.87 kva=0.87 irradiance=1 temperature=25 %cutin=20 %cutout=20 effcurve=MyEff P-TCurve=MyPvsT Daily=IRRAD_DIA TDaily=TEMP_DIA
New PVSystem.GD_9cb33ce279faa72159bb1bcec4f20fe3f1de850850a682b357f3988660c77926_2 phases=1 bus1=node_418498182.2.4 conn=wye kv=0.1270 pf=1 pmpp=0.87 kva=0.87 irradiance=1 temperature=25 %cutin=20 %cutout=20 effcurve=MyEff P-TCurve=MyPvsT Daily=IRRAD_DIA TDaily=TEMP_DIA
New PVSystem.GD_9cb33ce279faa72159bb1bcec4f20fe3f1de850850a682b357f3988660c77926_3 phases=1 bus1=node_418498182.3.4 conn=wye kv=0.1270 pf=1 pmpp=0.87 kva=0.87 irradiance=1 temperature=25 %cutin=20 %cutout=20 effcurve=MyEff P-TCurve=MyPvsT Daily=IRRAD_DIA TDaily=TEMP_DIA
New PVSystem.GD_6b26f1f00d0f22ce9f4285b99d028a4b5f065fafbab4d4065d3c2224c2ed3375_1 phases=1 bus1=node_418498182.1.4 conn=wye kv=0.1270 pf=1 pmpp=0.28 kva=0.28 irradiance=1 temperature=25 %cutin=20 %cutout=20 effcurve=MyEff P-TCurve=MyPvsT Daily=IRRAD_DIA TDaily=TEMP_DIA
New PVSystem.GD_6b26f1f00d0f22ce9f4285b99d028a4b5f065fafbab4d4065d3c2224c2ed3375_2 phases=1 bus1=node_418498182.2.4 conn=wye kv=0.1270 pf=1 pmpp=0.28 kva=0.28 irradiance=1 temperature=25 %cutin=20 %cutout=20 effcurve=MyEff P-TCurve=MyPvsT Daily=IRRAD_DIA TDaily=TEMP_DIA
New PVSystem.GD_6b26f1f00d0f22ce9f4285b99d028a4b5f065fafbab4d4065d3c2224c2ed3375_3 phases=1 bus1=node_418498182.3.4 conn=wye kv=0.1270 pf=1 pmpp=0.28 kva=0.28 irradiance=1 temperature=25 %cutin=20 %cutout=20 effcurve=MyEff P-TCurve=MyPvsT Daily=IRRAD_DIA TDaily=TEMP_DIA
New PVSystem.GD_2a638fca00f8c4c86f32c0752d84d3b53724e4fb607a4b18446138d0c63fcd9f_1 phases=1 bus1=node_418498182.1.4 conn=wye kv=0.1270 pf=1 pmpp=0.49 kva=0.49 irradiance=1 temperature=25 %cutin=20 %cutout=20 effcurve=MyEff P-TCurve=MyPvsT Daily=IRRAD_DIA TDaily=TEMP_DIA
New PVSystem.GD_2a638fca00f8c4c86f32c0752d84d3b53724e4fb607a4b18446138d0c63fcd9f_2 phases=1 bus1=node_418498182.2.4 conn=wye kv=0.1270 pf=1 pmpp=0.49 kva=0.49 irradiance=1 temperature=25 %cutin=20 %cutout=20 effcurve=MyEff P-TCurve=MyPvsT Daily=IRRAD_DIA TDaily=TEMP_DIA
New PVSystem.GD_2a638fca00f8c4c86f32c0752d84d3b53724e4fb607a4b18446138d0c63fcd9f_3 phases=1 bus1=node_418498182.3.4 conn=wye kv=0.1270 pf=1 pmpp=0.49 kva=0.49 irradiance=1 temperature=25 %cutin=20 %cutout=20 effcurve=MyEff P-TCurve=MyPvsT Daily=IRRAD_DIA TDaily=TEMP_DIA
New PVSystem.GD_89af092fcef850b346fdde01a35370deaa26d461f32f761828c9e08f5360aeb2_1 phases=1 bus1=node_418561311.1.4 conn=wye kv=0.1270 pf=1 pmpp=0.66 kva=0.66 irradiance=1 temperature=25 %cutin=20 %cutout=20 effcurve=MyEff P-TCurve=MyPvsT Daily=IRRAD_DIA TDaily=TEMP_DIA
New PVSystem.GD_89af092fcef850b346fdde01a35370deaa26d461f32f761828c9e08f5360aeb2_2 phases=1 bus1=node_418561311.2.4 conn=wye kv=0.1270 pf=1 pmpp=0.66 kva=0.66 irradiance=1 temperature=25 %cutin=20 %cutout=20 effcurve=MyEff P-TCurve=MyPvsT Daily=IRRAD_DIA TDaily=TEMP_DIA
New PVSystem.GD_89af092fcef850b346fdde01a35370deaa26d461f32f761828c9e08f5360aeb2_3 phases=1 bus1=node_418561311.3.4 conn=wye kv=0.1270 pf=1 pmpp=0.66 kva=0.66 irradiance=1 temperature=25 %cutin=20 %cutout=20 effcurve=MyEff P-TCurve=MyPvsT Daily=IRRAD_DIA TDaily=TEMP_DIA
New PVSystem.GD_496dde76c7136693a0f8e02baeecf60d8fcd134dd73884ba973be1442b4e591f_1 phases=1 bus1=node_418561311.1.4 conn=wye kv=0.1270 pf=1 pmpp=1.13 kva=1.13 irradiance=1 temperature=25 %cutin=20 %cutout=20 effcurve=MyEff P-TCurve=MyPvsT Daily=IRRAD_DIA TDaily=TEMP_DIA
New PVSystem.GD_496dde76c7136693a0f8e02baeecf60d8fcd134dd73884ba973be1442b4e591f_2 phases=1 bus1=node_418561311.2.4 conn=wye kv=0.1270 pf=1 pmpp=1.13 kva=1.13 irradiance=1 temperature=25 %cutin=20 %cutout=20 effcurve=MyEff P-TCurve=MyPvsT Daily=IRRAD_DIA TDaily=TEMP_DIA
New PVSystem.GD_496dde76c7136693a0f8e02baeecf60d8fcd134dd73884ba973be1442b4e591f_3 phases=1 bus1=node_418561311.3.4 conn=wye kv=0.1270 pf=1 pmpp=1.13 kva=1.13 irradiance=1 temperature=25 %cutin=20 %cutout=20 effcurve=MyEff P-TCurve=MyPvsT Daily=IRRAD_DIA TDaily=TEMP_DIA
New PVSystem.GD_8ac2e10a6a911167a15b61abcf13a140e984c3329fa372cc0b030401400e42fb_1 phases=1 bus1=node_418497894.1.4 conn=wye kv=0.1270 pf=1 pmpp=0.22 kva=0.22 irradiance=1 temperature=25 %cutin=20 %cutout=20 effcurve=MyEff P-TCurve=MyPvsT Daily=IRRAD_DIA TDaily=TEMP_DIA
New PVSystem.GD_8ac2e10a6a911167a15b61abcf13a140e984c3329fa372cc0b030401400e42fb_2 phases=1 bus1=node_418497894.2.4 conn=wye kv=0.1270 pf=1 pmpp=0.22 kva=0.22 irradiance=1 temperature=25 %cutin=20 %cutout=20 effcurve=MyEff P-TCurve=MyPvsT Daily=IRRAD_DIA TDaily=TEMP_DIA
New PVSystem.GD_8ac2e10a6a911167a15b61abcf13a140e984c3329fa372cc0b030401400e42fb_3 phases=1 bus1=node_418497894.3.4 conn=wye kv=0.1270 pf=1 pmpp=0.22 kva=0.22 irradiance=1 temperature=25 %cutin=20 %cutout=20 effcurve=MyEff P-TCurve=MyPvsT Daily=IRRAD_DIA TDaily=TEMP_DIA
New PVSystem.GD_6c4987aecb41a37ffccf0eb963ffa3a5b8a2e5dc62e317f7f4520421d3b7ef11_1 phases=1 bus1=node_418497894.1.4 conn=wye kv=0.1270 pf=1 pmpp=0.21 kva=0.21 irradiance=1 temperature=25 %cutin=20 %cutout=20 effcurve=MyEff P-TCurve=MyPvsT Daily=IRRAD_DIA TDaily=TEMP_DIA
New PVSystem.GD_6c4987aecb41a37ffccf0eb963ffa3a5b8a2e5dc62e317f7f4520421d3b7ef11_2 phases=1 bus1=node_418497894.2.4 conn=wye kv=0.1270 pf=1 pmpp=0.21 kva=0.21 irradiance=1 temperature=25 %cutin=20 %cutout=20 effcurve=MyEff P-TCurve=MyPvsT Daily=IRRAD_DIA TDaily=TEMP_DIA
New PVSystem.GD_6c4987aecb41a37ffccf0eb963ffa3a5b8a2e5dc62e317f7f4520421d3b7ef11_3 phases=1 bus1=node_418497894.3.4 conn=wye kv=0.1270 pf=1 pmpp=0.21 kva=0.21 irradiance=1 temperature=25 %cutin=20 %cutout=20 effcurve=MyEff P-TCurve=MyPvsT Daily=IRRAD_DIA TDaily=TEMP_DIA
New PVSystem.GD_c37de3d39f839461593009ab6f66ded900901ae34c70d2d1f4a9ad8c01b2f6ef_1 phases=1 bus1=node_418497894.1.4 conn=wye kv=0.1270 pf=1 pmpp=0.20 kva=0.20 irradiance=1 temperature=25 %cutin=20 %cutout=20 effcurve=MyEff P-TCurve=MyPvsT Daily=IRRAD_DIA TDaily=TEMP_DIA
New PVSystem.GD_c37de3d39f839461593009ab6f66ded900901ae34c70d2d1f4a9ad8c01b2f6ef_2 phases=1 bus1=node_418497894.2.4 conn=wye kv=0.1270 pf=1 pmpp=0.20 kva=0.20 irradiance=1 temperature=25 %cutin=20 %cutout=20 effcurve=MyEff P-TCurve=MyPvsT Daily=IRRAD_DIA TDaily=TEMP_DIA
New PVSystem.GD_c37de3d39f839461593009ab6f66ded900901ae34c70d2d1f4a9ad8c01b2f6ef_3 phases=1 bus1=node_418497894.3.4 conn=wye kv=0.1270 pf=1 pmpp=0.20 kva=0.20 irradiance=1 temperature=25 %cutin=20 %cutout=20 effcurve=MyEff P-TCurve=MyPvsT Daily=IRRAD_DIA TDaily=TEMP_DIA
New PVSystem.GD_9cb8e40dbb28772fed2fab8ac662ed3e1bc6ba90e5d200cd0b961460a0d61eb0_1 phases=1 bus1=node_418557705.1.4 conn=wye kv=0.1270 pf=1 pmpp=0.48 kva=0.48 irradiance=1 temperature=25 %cutin=20 %cutout=20 effcurve=MyEff P-TCurve=MyPvsT Daily=IRRAD_DIA TDaily=TEMP_DIA
New PVSystem.GD_9cb8e40dbb28772fed2fab8ac662ed3e1bc6ba90e5d200cd0b961460a0d61eb0_2 phases=1 bus1=node_418557705.2.4 conn=wye kv=0.1270 pf=1 pmpp=0.48 kva=0.48 irradiance=1 temperature=25 %cutin=20 %cutout=20 effcurve=MyEff P-TCurve=MyPvsT Daily=IRRAD_DIA TDaily=TEMP_DIA
New PVSystem.GD_9cb8e40dbb28772fed2fab8ac662ed3e1bc6ba90e5d200cd0b961460a0d61eb0_3 phases=1 bus1=node_418557705.3.4 conn=wye kv=0.1270 pf=1 pmpp=0.48 kva=0.48 irradiance=1 temperature=25 %cutin=20 %cutout=20 effcurve=MyEff P-TCurve=MyPvsT Daily=IRRAD_DIA TDaily=TEMP_DIA
New PVSystem.GD_1a3e4e61b5dc6e984b591cb94df3134580e63eb837265971a8c0019c54e65390_1 phases=1 bus1=node_419619120.1.4 conn=wye kv=0.1270 pf=1 pmpp=0.30 kva=0.30 irradiance=1 temperature=25 %cutin=20 %cutout=20 effcurve=MyEff P-TCurve=MyPvsT Daily=IRRAD_DIA TDaily=TEMP_DIA
New PVSystem.GD_1a3e4e61b5dc6e984b591cb94df3134580e63eb837265971a8c0019c54e65390_2 phases=1 bus1=node_419619120.2.4 conn=wye kv=0.1270 pf=1 pmpp=0.30 kva=0.30 irradiance=1 temperature=25 %cutin=20 %cutout=20 effcurve=MyEff P-TCurve=MyPvsT Daily=IRRAD_DIA TDaily=TEMP_DIA
New PVSystem.GD_1a3e4e61b5dc6e984b591cb94df3134580e63eb837265971a8c0019c54e65390_3 phases=1 bus1=node_419619120.3.4 conn=wye kv=0.1270 pf=1 pmpp=0.30 kva=0.30 irradiance=1 temperature=25 %cutin=20 %cutout=20 effcurve=MyEff P-TCurve=MyPvsT Daily=IRRAD_DIA TDaily=TEMP_DIA
New PVSystem.GD_d132426b1c98c749caea980a6eb47149cf5fd62c87984a1f3cc884ef6ffe5fb1_1 phases=1 bus1=node_418468038.1.4 conn=wye kv=0.1200 pf=1 pmpp=1.43 kva=1.43 irradiance=1 temperature=25 %cutin=20 %cutout=20 effcurve=MyEff P-TCurve=MyPvsT Daily=IRRAD_DIA TDaily=TEMP_DIA
New PVSystem.GD_d132426b1c98c749caea980a6eb47149cf5fd62c87984a1f3cc884ef6ffe5fb1_2 phases=1 bus1=node_418468038.2.4 conn=wye kv=0.1200 pf=1 pmpp=1.43 kva=1.43 irradiance=1 temperature=25 %cutin=20 %cutout=20 effcurve=MyEff P-TCurve=MyPvsT Daily=IRRAD_DIA TDaily=TEMP_DIA
New PVSystem.GD_5e7e4f0435fed7db4e8b0aef585f976282f8df788f4e26a74f1e0a52bb579bf4_1 phases=1 bus1=node_418468038.1.4 conn=wye kv=0.1200 pf=1 pmpp=16.77 kva=16.77 irradiance=1 temperature=25 %cutin=20 %cutout=20 effcurve=MyEff P-TCurve=MyPvsT Daily=IRRAD_DIA TDaily=TEMP_DIA
New PVSystem.GD_5e7e4f0435fed7db4e8b0aef585f976282f8df788f4e26a74f1e0a52bb579bf4_2 phases=1 bus1=node_418468038.2.4 conn=wye kv=0.1200 pf=1 pmpp=16.77 kva=16.77 irradiance=1 temperature=25 %cutin=20 %cutout=20 effcurve=MyEff P-TCurve=MyPvsT Daily=IRRAD_DIA TDaily=TEMP_DIA
New PVSystem.GD_d4f3791658e625466b9e4124ca74cb76cf0c678b80db6dd7fc72f70561c9eca1_1 phases=1 bus1=node_418468038.1.4 conn=wye kv=0.1200 pf=1 pmpp=0.55 kva=0.55 irradiance=1 temperature=25 %cutin=20 %cutout=20 effcurve=MyEff P-TCurve=MyPvsT Daily=IRRAD_DIA TDaily=TEMP_DIA
New PVSystem.GD_d4f3791658e625466b9e4124ca74cb76cf0c678b80db6dd7fc72f70561c9eca1_2 phases=1 bus1=node_418468038.2.4 conn=wye kv=0.1200 pf=1 pmpp=0.55 kva=0.55 irradiance=1 temperature=25 %cutin=20 %cutout=20 effcurve=MyEff P-TCurve=MyPvsT Daily=IRRAD_DIA TDaily=TEMP_DIA
New PVSystem.GD_e65c13236542c8e3f1b10751f792bcf824b70e3b437942c843711aac738d6e34_1 phases=1 bus1=node_418500159.1.4 conn=wye kv=0.1270 pf=1 pmpp=0.36 kva=0.36 irradiance=1 temperature=25 %cutin=20 %cutout=20 effcurve=MyEff P-TCurve=MyPvsT Daily=IRRAD_DIA TDaily=TEMP_DIA
New PVSystem.GD_e65c13236542c8e3f1b10751f792bcf824b70e3b437942c843711aac738d6e34_2 phases=1 bus1=node_418500159.2.4 conn=wye kv=0.1270 pf=1 pmpp=0.36 kva=0.36 irradiance=1 temperature=25 %cutin=20 %cutout=20 effcurve=MyEff P-TCurve=MyPvsT Daily=IRRAD_DIA TDaily=TEMP_DIA
New PVSystem.GD_e65c13236542c8e3f1b10751f792bcf824b70e3b437942c843711aac738d6e34_3 phases=1 bus1=node_418500159.3.4 conn=wye kv=0.1270 pf=1 pmpp=0.36 kva=0.36 irradiance=1 temperature=25 %cutin=20 %cutout=20 effcurve=MyEff P-TCurve=MyPvsT Daily=IRRAD_DIA TDaily=TEMP_DIA
New PVSystem.GD_ce941c4e4151c274f63ae7666bb9eaf5175e32a18b6e29597cd1dcd2c89c9c57_1 phases=1 bus1=node_418500159.1.4 conn=wye kv=0.1270 pf=1 pmpp=0.34 kva=0.34 irradiance=1 temperature=25 %cutin=20 %cutout=20 effcurve=MyEff P-TCurve=MyPvsT Daily=IRRAD_DIA TDaily=TEMP_DIA
New PVSystem.GD_ce941c4e4151c274f63ae7666bb9eaf5175e32a18b6e29597cd1dcd2c89c9c57_2 phases=1 bus1=node_418500159.2.4 conn=wye kv=0.1270 pf=1 pmpp=0.34 kva=0.34 irradiance=1 temperature=25 %cutin=20 %cutout=20 effcurve=MyEff P-TCurve=MyPvsT Daily=IRRAD_DIA TDaily=TEMP_DIA
New PVSystem.GD_ce941c4e4151c274f63ae7666bb9eaf5175e32a18b6e29597cd1dcd2c89c9c57_3 phases=1 bus1=node_418500159.3.4 conn=wye kv=0.1270 pf=1 pmpp=0.34 kva=0.34 irradiance=1 temperature=25 %cutin=20 %cutout=20 effcurve=MyEff P-TCurve=MyPvsT Daily=IRRAD_DIA TDaily=TEMP_DIA
New PVSystem.GD_5468e7c18d1bf334ed899ffffa4bb13dba9ba27acdf42296568c881051befdcd_1 phases=1 bus1=node_418500159.1.4 conn=wye kv=0.1270 pf=1 pmpp=2.46 kva=2.46 irradiance=1 temperature=25 %cutin=20 %cutout=20 effcurve=MyEff P-TCurve=MyPvsT Daily=IRRAD_DIA TDaily=TEMP_DIA
New PVSystem.GD_5468e7c18d1bf334ed899ffffa4bb13dba9ba27acdf42296568c881051befdcd_2 phases=1 bus1=node_418500159.2.4 conn=wye kv=0.1270 pf=1 pmpp=2.46 kva=2.46 irradiance=1 temperature=25 %cutin=20 %cutout=20 effcurve=MyEff P-TCurve=MyPvsT Daily=IRRAD_DIA TDaily=TEMP_DIA
New PVSystem.GD_5468e7c18d1bf334ed899ffffa4bb13dba9ba27acdf42296568c881051befdcd_3 phases=1 bus1=node_418500159.3.4 conn=wye kv=0.1270 pf=1 pmpp=2.46 kva=2.46 irradiance=1 temperature=25 %cutin=20 %cutout=20 effcurve=MyEff P-TCurve=MyPvsT Daily=IRRAD_DIA TDaily=TEMP_DIA
New PVSystem.GD_e027f495d49bd21af6a0065598600de0bbcfef17eec046e7043cfbe96a99f889_1 phases=1 bus1=node_418499328.1.4 conn=wye kv=0.1270 pf=1 pmpp=0.21 kva=0.21 irradiance=1 temperature=25 %cutin=20 %cutout=20 effcurve=MyEff P-TCurve=MyPvsT Daily=IRRAD_DIA TDaily=TEMP_DIA
New PVSystem.GD_e027f495d49bd21af6a0065598600de0bbcfef17eec046e7043cfbe96a99f889_2 phases=1 bus1=node_418499328.2.4 conn=wye kv=0.1270 pf=1 pmpp=0.21 kva=0.21 irradiance=1 temperature=25 %cutin=20 %cutout=20 effcurve=MyEff P-TCurve=MyPvsT Daily=IRRAD_DIA TDaily=TEMP_DIA
New PVSystem.GD_e027f495d49bd21af6a0065598600de0bbcfef17eec046e7043cfbe96a99f889_3 phases=1 bus1=node_418499328.3.4 conn=wye kv=0.1270 pf=1 pmpp=0.21 kva=0.21 irradiance=1 temperature=25 %cutin=20 %cutout=20 effcurve=MyEff P-TCurve=MyPvsT Daily=IRRAD_DIA TDaily=TEMP_DIA
New PVSystem.GD_c8d664493513cbaf90abc33fa0485d0109c04ff73eb2ee36a4a6f662d25d3003_1 phases=1 bus1=node_417592294.1.4 conn=wye kv=0.1270 pf=1 pmpp=1.88 kva=1.88 irradiance=1 temperature=25 %cutin=20 %cutout=20 effcurve=MyEff P-TCurve=MyPvsT Daily=IRRAD_DIA TDaily=TEMP_DIA
New PVSystem.GD_c8d664493513cbaf90abc33fa0485d0109c04ff73eb2ee36a4a6f662d25d3003_2 phases=1 bus1=node_417592294.2.4 conn=wye kv=0.1270 pf=1 pmpp=1.88 kva=1.88 irradiance=1 temperature=25 %cutin=20 %cutout=20 effcurve=MyEff P-TCurve=MyPvsT Daily=IRRAD_DIA TDaily=TEMP_DIA
New PVSystem.GD_c8d664493513cbaf90abc33fa0485d0109c04ff73eb2ee36a4a6f662d25d3003_3 phases=1 bus1=node_417592294.3.4 conn=wye kv=0.1270 pf=1 pmpp=1.88 kva=1.88 irradiance=1 temperature=25 %cutin=20 %cutout=20 effcurve=MyEff P-TCurve=MyPvsT Daily=IRRAD_DIA TDaily=TEMP_DIA
New PVSystem.GD_44e9a957e4f4388c039bb5019e7f1fc15cd2e7fb6009201db3aeabb60f4bfd09_1 phases=1 bus1=node_417592294.1.4 conn=wye kv=0.1270 pf=1 pmpp=1.31 kva=1.31 irradiance=1 temperature=25 %cutin=20 %cutout=20 effcurve=MyEff P-TCurve=MyPvsT Daily=IRRAD_DIA TDaily=TEMP_DIA
New PVSystem.GD_44e9a957e4f4388c039bb5019e7f1fc15cd2e7fb6009201db3aeabb60f4bfd09_2 phases=1 bus1=node_417592294.2.4 conn=wye kv=0.1270 pf=1 pmpp=1.31 kva=1.31 irradiance=1 temperature=25 %cutin=20 %cutout=20 effcurve=MyEff P-TCurve=MyPvsT Daily=IRRAD_DIA TDaily=TEMP_DIA
New PVSystem.GD_44e9a957e4f4388c039bb5019e7f1fc15cd2e7fb6009201db3aeabb60f4bfd09_3 phases=1 bus1=node_417592294.3.4 conn=wye kv=0.1270 pf=1 pmpp=1.31 kva=1.31 irradiance=1 temperature=25 %cutin=20 %cutout=20 effcurve=MyEff P-TCurve=MyPvsT Daily=IRRAD_DIA TDaily=TEMP_DIA
New PVSystem.GD_50e9123e2849a9ed5e99fd208ab748594f6ef07ea990ad220a15a39560650680_1 phases=1 bus1=node_417592294.1.4 conn=wye kv=0.1270 pf=1 pmpp=0.30 kva=0.30 irradiance=1 temperature=25 %cutin=20 %cutout=20 effcurve=MyEff P-TCurve=MyPvsT Daily=IRRAD_DIA TDaily=TEMP_DIA
New PVSystem.GD_50e9123e2849a9ed5e99fd208ab748594f6ef07ea990ad220a15a39560650680_2 phases=1 bus1=node_417592294.2.4 conn=wye kv=0.1270 pf=1 pmpp=0.30 kva=0.30 irradiance=1 temperature=25 %cutin=20 %cutout=20 effcurve=MyEff P-TCurve=MyPvsT Daily=IRRAD_DIA TDaily=TEMP_DIA
New PVSystem.GD_50e9123e2849a9ed5e99fd208ab748594f6ef07ea990ad220a15a39560650680_3 phases=1 bus1=node_417592294.3.4 conn=wye kv=0.1270 pf=1 pmpp=0.30 kva=0.30 irradiance=1 temperature=25 %cutin=20 %cutout=20 effcurve=MyEff P-TCurve=MyPvsT Daily=IRRAD_DIA TDaily=TEMP_DIA
New PVSystem.GD_563729c0b3c16a87bfca60096793d9f2117a919569c15e42178242c772a00503_1 phases=1 bus1=node_418559244.1.4 conn=wye kv=0.1270 pf=1 pmpp=0.52 kva=0.52 irradiance=1 temperature=25 %cutin=20 %cutout=20 effcurve=MyEff P-TCurve=MyPvsT Daily=IRRAD_DIA TDaily=TEMP_DIA
New PVSystem.GD_563729c0b3c16a87bfca60096793d9f2117a919569c15e42178242c772a00503_2 phases=1 bus1=node_418559244.2.4 conn=wye kv=0.1270 pf=1 pmpp=0.52 kva=0.52 irradiance=1 temperature=25 %cutin=20 %cutout=20 effcurve=MyEff P-TCurve=MyPvsT Daily=IRRAD_DIA TDaily=TEMP_DIA
New PVSystem.GD_563729c0b3c16a87bfca60096793d9f2117a919569c15e42178242c772a00503_3 phases=1 bus1=node_418559244.3.4 conn=wye kv=0.1270 pf=1 pmpp=0.52 kva=0.52 irradiance=1 temperature=25 %cutin=20 %cutout=20 effcurve=MyEff P-TCurve=MyPvsT Daily=IRRAD_DIA TDaily=TEMP_DIA
New PVSystem.GD_1f49014bf2a0c553a8c261f8173194b3ebca8dbf5d5892e8380735272a7a13ba_1 phases=1 bus1=node_418559244.1.4 conn=wye kv=0.1270 pf=1 pmpp=0.57 kva=0.57 irradiance=1 temperature=25 %cutin=20 %cutout=20 effcurve=MyEff P-TCurve=MyPvsT Daily=IRRAD_DIA TDaily=TEMP_DIA
New PVSystem.GD_1f49014bf2a0c553a8c261f8173194b3ebca8dbf5d5892e8380735272a7a13ba_2 phases=1 bus1=node_418559244.2.4 conn=wye kv=0.1270 pf=1 pmpp=0.57 kva=0.57 irradiance=1 temperature=25 %cutin=20 %cutout=20 effcurve=MyEff P-TCurve=MyPvsT Daily=IRRAD_DIA TDaily=TEMP_DIA
New PVSystem.GD_1f49014bf2a0c553a8c261f8173194b3ebca8dbf5d5892e8380735272a7a13ba_3 phases=1 bus1=node_418559244.3.4 conn=wye kv=0.1270 pf=1 pmpp=0.57 kva=0.57 irradiance=1 temperature=25 %cutin=20 %cutout=20 effcurve=MyEff P-TCurve=MyPvsT Daily=IRRAD_DIA TDaily=TEMP_DIA
New PVSystem.GD_376bc7cde011080c33b2db237f5e73a35347841abbf385f5dfe25f10c0183b23_1 phases=1 bus1=node_418559244.1.4 conn=wye kv=0.1270 pf=1 pmpp=2.58 kva=2.58 irradiance=1 temperature=25 %cutin=20 %cutout=20 effcurve=MyEff P-TCurve=MyPvsT Daily=IRRAD_DIA TDaily=TEMP_DIA
New PVSystem.GD_376bc7cde011080c33b2db237f5e73a35347841abbf385f5dfe25f10c0183b23_2 phases=1 bus1=node_418559244.2.4 conn=wye kv=0.1270 pf=1 pmpp=2.58 kva=2.58 irradiance=1 temperature=25 %cutin=20 %cutout=20 effcurve=MyEff P-TCurve=MyPvsT Daily=IRRAD_DIA TDaily=TEMP_DIA
New PVSystem.GD_376bc7cde011080c33b2db237f5e73a35347841abbf385f5dfe25f10c0183b23_3 phases=1 bus1=node_418559244.3.4 conn=wye kv=0.1270 pf=1 pmpp=2.58 kva=2.58 irradiance=1 temperature=25 %cutin=20 %cutout=20 effcurve=MyEff P-TCurve=MyPvsT Daily=IRRAD_DIA TDaily=TEMP_DIA
New PVSystem.GD_54857628a4e21973fcc4985f131378f72d8d4233a209f69fd47483a2c8eaa092_1 phases=1 bus1=node_418497705.1.4 conn=wye kv=0.1270 pf=1 pmpp=0.15 kva=0.15 irradiance=1 temperature=25 %cutin=20 %cutout=20 effcurve=MyEff P-TCurve=MyPvsT Daily=IRRAD_DIA TDaily=TEMP_DIA
New PVSystem.GD_54857628a4e21973fcc4985f131378f72d8d4233a209f69fd47483a2c8eaa092_2 phases=1 bus1=node_418497705.2.4 conn=wye kv=0.1270 pf=1 pmpp=0.15 kva=0.15 irradiance=1 temperature=25 %cutin=20 %cutout=20 effcurve=MyEff P-TCurve=MyPvsT Daily=IRRAD_DIA TDaily=TEMP_DIA
New PVSystem.GD_54857628a4e21973fcc4985f131378f72d8d4233a209f69fd47483a2c8eaa092_3 phases=1 bus1=node_418497705.3.4 conn=wye kv=0.1270 pf=1 pmpp=0.15 kva=0.15 irradiance=1 temperature=25 %cutin=20 %cutout=20 effcurve=MyEff P-TCurve=MyPvsT Daily=IRRAD_DIA TDaily=TEMP_DIA
New PVSystem.GD_90f44dd50d5de1312ed82007af8c4ce232b23cac6ccec87192564a5df73fd42c_1 phases=1 bus1=node_418497705.1.4 conn=wye kv=0.1270 pf=1 pmpp=0.44 kva=0.44 irradiance=1 temperature=25 %cutin=20 %cutout=20 effcurve=MyEff P-TCurve=MyPvsT Daily=IRRAD_DIA TDaily=TEMP_DIA
...
